%mem=4800MB
%nprocshared=12
%chk=15.chk
# opt freq b3lyp/6-31+g(d,p) scf=xqc

mydftmodel_sets

0 1
 N                  0.24430000   -0.86210000   -0.10720000
 N                  1.27580000    1.76080000    0.11010000
 C                 -0.57930000    0.18580000   -0.01290000
 C                 -0.04720000    1.53720000    0.07090000
 C                 -2.02650000   -0.01270000   -0.03970000
 C                  1.56910000   -0.63620000   -0.09010000
 C                  2.09430000    0.70020000    0.03840000
 C                 -0.93170000    2.65560000    0.08260000
 C                 -2.82460000    1.12250000   -0.04280000
 C                 -2.28140000    2.43600000    0.01140000
 C                  2.47610000   -1.73410000   -0.19610000
 C                  3.51030000    0.88980000    0.07460000
 C                  3.83040000   -1.51320000   -0.16240000
 C                  4.35110000   -0.19010000   -0.02310000
 H                 -3.90260000    1.02240000   -0.06700000
 H                  2.05840000   -2.73050000   -0.30150000
 H                  3.88320000    1.90410000    0.17540000
 H                  5.42710000   -0.04440000    0.00200000
 C                 -3.25611230    3.62827568    0.01522685
 N                 -3.99031117    4.52635346    0.01810941
 C                  4.80759876   -2.69814745   -0.27457011
 N                  5.54367055   -3.59070526   -0.35906188
 N                 -2.61335910   -1.36028246   -0.06245777
 H                 -3.16449971   -1.46991057   -0.88963713
 H                 -1.88216838   -2.04242739   -0.05625937
 N                 -0.34701241    4.00229292    0.15648239
 H                  0.64963628    3.93121511    0.19697127
 C                 -0.83897475    4.68461321    1.36201632
 C                 -1.86281621    5.62699778    1.26136130
 C                 -0.28232399    4.38985984    2.60652767
 C                 -2.32937664    6.27492682    2.40492199
 C                 -0.74958914    5.03717820    3.75066583
 C                 -1.77285694    5.97969408    3.65004849
 H                 -3.13594638    7.01819430    2.32557955
 H                 -0.31078606    4.80427500    4.73182952
 H                 -2.14092656    6.49064801    4.55157340
 N                 -2.44848157    5.93808864   -0.05055278
 H                 -3.42968103    6.10117557    0.05264744
 H                 -2.01212495    6.75632681   -0.42482432
 C                  0.84764725    3.34949599    2.71791912
 N                  1.69879441    2.56584529    2.80182436

