%mem=4800MB
%nprocshared=12
%chk=16.chk
# opt freq b3lyp/6-31+g(d,p) scf=xqc

mydftmodel_sets

0 1
 N                  0.00277862    1.35733282    0.00030774
 N                  0.01403236   -1.38174403   -0.00011943
 C                  1.16399903    0.69324816    0.00023217
 C                  1.16975676   -0.70814000    0.00001457
 C                  2.37475792    1.39892857    0.00037409
 C                 -1.15294578    0.68372878    0.00017217
 C                 -1.14718805   -0.71765937   -0.00004646
 C                  2.38627338   -1.40384774   -0.00006372
 C                  3.59127454    0.70322083    0.00029800
 C                  3.59703227   -0.69816732    0.00007783
 C                 -2.35794694   -1.42333979   -0.00018650
 C                 -3.57446356   -0.72763205   -0.00010963
 H                 -4.49890485   -1.26643470   -0.00021664
 C                 -2.36946240    1.37943652    0.00025035
 C                 -3.58022129    0.67375611    0.00010948
 N                  4.87309866   -1.42793068   -0.00000632
 H                  5.63050183   -0.77498319    0.00011447
 C                  4.95446856   -2.27254003   -1.20038708
 C                  4.23820315   -3.46822404   -1.26182846
 C                  5.74763422   -1.87857987   -2.27799171
 C                  4.31567652   -4.27003619   -2.40038760
 C                  5.82446377   -2.68003802   -3.41736521
 C                  5.10877148   -3.87568127   -3.47867380
 H                  3.75163102   -5.21280922   -2.44863880
 H                  6.44959782   -2.36896063   -4.26701956
 H                  5.16965425   -4.50801687   -4.37630474
 H                 -2.37385855    2.44942748    0.00041760
 H                 -4.50905873    1.20494441    0.00016922
 H                  3.62935689   -3.77014089   -0.43535859
 H                  6.29716255   -0.96168748   -2.23080113
 H                  2.39066954   -2.47383870   -0.00023157
 H                  2.37036177    2.46891953    0.00054055
 H                 -2.35355078   -2.49333075   -0.00035212
 N                  4.86130135    1.44344504    0.00044603
 H                  4.74893366    2.29830026   -0.50610709
 C                 -0.00326096    2.82732039    0.00053976
 C                  0.02717352    3.52478212    1.20846870
 C                 -0.03930556    3.52487437   -1.20679920
 C                  0.02088044    4.91947989    1.20898225
 H                  0.05480994    2.97454775    2.16016201
 C                 -0.04460977    4.92000220   -1.20648611
 H                 -0.06311602    2.97532490   -2.15893231
 C                 -0.01466279    5.61736184    0.00112712
 H                  0.04423405    5.46929308    2.16106238
 H                 -0.07261730    5.46972705   -2.15858505
 H                 -0.01955873    6.71703085    0.00178030

