%mem=4800MB
%nprocshared=12
%chk=17.chk
# opt freq b3lyp/6-31+g(d,p) scf=xqc

mydftmodel_sets

0 1
 N                  0.00277862    1.35733282    0.00030774
 N                  0.01403236   -1.38174403   -0.00011943
 C                  1.16399903    0.69324816    0.00023217
 C                  1.16975676   -0.70814000    0.00001457
 C                  2.37475792    1.39892857    0.00037409
 C                 -1.15294578    0.68372878    0.00017217
 C                 -1.14718805   -0.71765937   -0.00004646
 C                  2.38627338   -1.40384774   -0.00006372
 C                  3.59127454    0.70322083    0.00029800
 C                  3.59703227   -0.69816732    0.00007783
 C                 -2.35794694   -1.42333979   -0.00018650
 C                 -3.57446356   -0.72763205   -0.00010963
 H                  4.51571583    1.24202349    0.00040575
 H                 -4.49890485   -1.26643470   -0.00021664
 C                 -2.36946240    1.37943652    0.00025035
 C                 -3.58022129    0.67375611    0.00010948
 O                  2.39214862   -2.83383565   -0.00029080
 H                  3.29839342   -3.15056955   -0.00031427
 C                  2.36843074    2.93891555    0.00061413
 O                  3.30657000    3.73478166    0.00794027
 O                  1.11081870    3.44855515   -0.00884320
 H                  1.13541636    4.41940821   -0.00846798
 N                  4.87309866   -1.42793068   -0.00000632
 H                  5.39643820   -1.18436170    0.81656571
 C                  5.64252712   -1.06939881   -1.20014578
 C                  5.29854951   -1.61396364   -2.43772405
 C                  6.71640322   -0.18472314   -1.10172220
 C                  6.02876017   -1.27439739   -3.57645532
 C                  7.44632329    0.15581471   -2.24087126
 C                  7.10278229   -0.38894808   -3.47810611
 H                  5.75808455   -1.70407606   -4.55185649
 H                  8.29272105    0.85368754   -2.16303429
 H                  7.67834381   -0.12131484   -4.37610261
 C                  7.09612703    0.41669987    0.26418416
 O                  6.58409804    0.25429981    1.37098782
 O                  8.16634047    1.24689407    0.18153559
 H                  8.38421922    1.61168331    1.05481591
 O                  4.19814966   -2.52168576   -2.53802721
 C                  3.46415637   -2.25159870   -3.73519338
 H                  4.00098429   -2.63614960   -4.57711760
 H                  2.50461832   -2.72173486   -3.67899073
 H                  3.33765497   -1.19481856   -3.84525311
 H                 -2.37385855    2.44942748    0.00041760
 H                 -4.50905873    1.20494441    0.00016922
 C                 -2.35161976   -2.96332677   -0.00042295
 O                 -3.28978657   -3.75919412   -0.00051713
 O                 -1.09397150   -3.47296474   -0.00047022
 H                 -1.11857003   -4.44381784   -0.00061324

