%mem=4800MB
%nprocshared=12
%chk=21.chk
# opt freq b3lyp/6-31+g(d,p) scf=xqc

mydftmodel_sets

0 1
 N                  0.00277862    1.35733282    0.00030774
 N                  0.01403236   -1.38174403   -0.00011943
 C                  1.16399903    0.69324816    0.00023217
 C                  1.16975676   -0.70814000    0.00001457
 C                  2.37475792    1.39892857    0.00037409
 C                 -1.15294578    0.68372878    0.00017217
 C                 -1.14718805   -0.71765937   -0.00004646
 C                  2.38627338   -1.40384774   -0.00006372
 C                  3.59127454    0.70322083    0.00029800
 C                  3.59703227   -0.69816732    0.00007783
 C                 -2.35794694   -1.42333979   -0.00018650
 C                 -3.57446356   -0.72763205   -0.00010963
 H                  4.51571583    1.24202349    0.00040575
 H                 -2.35355078   -2.49333074   -0.00035079
 C                 -2.36946240    1.37943652    0.00025035
 C                 -3.58022129    0.67375611    0.00010948
 C                 -2.37522014    2.78082468    0.00047263
 C                 -4.79673792    1.36946385    0.00019092
 C                 -3.59173676    3.47653242    0.00055118
 H                 -1.45077885    3.31962734    0.00058194
 C                 -4.80249565    2.77085200    0.00041055
 H                 -3.59613292    4.54652337    0.00072037
 H                 -5.73133309    3.30204030    0.00047460
 O                  2.39214862   -2.83383565   -0.00029080
 C                  2.36843074    2.93891555    0.00061413
 O                  3.30657000    3.73478166    0.00794027
 O                  1.11081870    3.44855515   -0.00884320
 H                  1.13541636    4.41940821   -0.00846798
 N                  4.87309866   -1.42793068   -0.00000632
 H                  5.39643820   -1.18436170    0.81656571
 C                  5.64252712   -1.06939881   -1.20014578
 C                  6.65465302   -0.11252319   -1.11976148
 C                  5.36086071   -1.68586544   -2.41923604
 C                  7.38444465    0.22823703   -2.25840470
 C                  6.09144256   -1.34582975   -3.55811083
 C                  7.10302237   -0.38884850   -3.47792244
 H                  8.18180766    0.98290317   -2.19525601
 H                  5.86941388   -1.83235050   -4.51908693
 H                  7.67860970   -0.12005106   -4.37555460
 C                  4.24387451   -2.74229047   -2.50816280
 O                  3.49932401   -3.18321650   -1.63363973
 O                  4.09737669   -3.23203117   -3.76518405
 H                  3.38811928   -3.89484685   -3.79329402
 O                  6.94243361    0.51997715    0.13004877
 C                  8.35718956    0.66989729    0.27458096
 H                  8.69455963    1.47932999   -0.33852600
 H                  8.59128477    0.87610580    1.29809329
 H                  8.84431746   -0.23356601   -0.02767801
 C                  2.90638253   -3.30926870    1.24647578
 H                  2.13547115   -3.27241029    1.98758111
 H                  3.24301128   -4.31845121    1.13188194
 H                  3.72544144   -2.69268804    1.55285916
 S                 -5.03372134   -1.39614736   -0.00024708
 O                 -5.98190720   -0.74295744   -0.78946241
 O                 -5.21861359   -1.45567946    1.45645980
 H                 -6.15396511   -1.53423668    1.65782093
 O                 -4.73890028   -2.92486752   -0.60439540
 H                 -5.72117920    0.83066119    0.00008541

