%mem=4800MB
%nprocshared=12
%chk=23.chk
# opt freq rb3lyp/6-31+g(d,p) scf=xqc

mydftmodel_sets

0 1
 N                  1.35696159    1.04521455   -0.04709191
 N                 -1.44951146    0.90162400    0.00093731
 C                  0.59915359    2.15485200   -0.08512675
 C                 -0.81061766    2.08272245   -0.06099860
 C                  1.21941826    3.40864883   -0.15001766
 C                  0.76908392   -0.14795184    0.01462271
 C                 -0.74119974   -0.22522404    0.04047009
 C                 -1.55742296    3.26657459   -0.10249045
 C                  0.47124790    4.53925515   -0.18912523
 C                 -0.93028702    4.46754712   -0.16513560
 C                  1.49931362   -1.33494245    0.05650490
 C                 -1.34465153   -1.48045123    0.10517635
 C                  0.84453915   -2.52876378    0.11924443
 C                 -0.56972947   -2.60112348    0.14344873
 H                 -1.50847418    5.36733320   -0.19651392
 C                 -2.87973286   -1.60018256    0.13327759
 F                 -3.42422805   -0.56555771   -0.54168649
 F                 -3.30942563   -1.57870096    1.41288796
 F                 -3.25123308   -2.76124826   -0.44673448
 H                 -1.04191353   -3.56001997    0.19304418
 H                  0.95320185    5.49328209   -0.23865245
 H                 -2.62640999    3.22355477   -0.08471281
 H                  2.28719646    3.47495439   -0.16881299
 C                  3.03866011   -1.29737354    0.03199119
 F                  3.50733768   -1.22992747    1.29622713
 F                  3.45139557   -0.21377301   -0.65935488
 F                  3.50667419   -2.41548636   -0.56238797
 H                  1.41351245   -3.43439032    0.15102372

