%mem=4800MB
%nprocshared=12
%chk=30.chk
# opt freq b3lyp/6-31+g(d,p) scf=xqc

mydftmodel_sets

0 1
 N                  0.00277862    1.35733282    0.00030774
 N                  0.01403236   -1.38174403   -0.00011943
 C                  1.16399903    0.69324816    0.00023217
 C                  1.16975676   -0.70814000    0.00001457
 C                  2.37475792    1.39892857    0.00037409
 C                 -1.15294578    0.68372878    0.00017217
 C                 -1.14718805   -0.71765937   -0.00004646
 C                  2.38627338   -1.40384774   -0.00006372
 C                  3.59127454    0.70322083    0.00029800
 C                  3.59703227   -0.69816732    0.00007783
 C                 -2.35794694   -1.42333979   -0.00018650
 C                 -3.57446356   -0.72763205   -0.00010963
 H                  2.39066954   -2.47383869   -0.00023363
 H                  4.51571583    1.24202349    0.00040575
 H                 -2.35355078   -2.49333074   -0.00035079
 H                  2.37036176    2.46891953    0.00054087
 C                 -2.36946240    1.37943652    0.00025035
 C                 -3.58022129    0.67375611    0.00010948
 C                 -2.37522014    2.78082468    0.00047263
 C                 -4.79673792    1.36946385    0.00019092
 C                 -3.59173676    3.47653242    0.00055118
 H                 -1.45077885    3.31962734    0.00058194
 C                 -4.80249565    2.77085200    0.00041055
 H                 -5.72117920    0.83066119    0.00008731
 H                 -3.59613292    4.54652337    0.00072037
 H                 -5.73133309    3.30204030    0.00047460
 C                  4.93386372   -1.46268132   -0.00001032
 O                  5.15402166   -2.67309128   -0.00014407
 O                  6.00404728   -0.62834498    0.00014648
 H                  6.83253147   -1.13507450    0.00009342
 O                 -4.80993182   -1.44771409   -0.00025264
 H                 -4.77048995   -2.15164230   -0.65181187

