%mem=4800MB
%nprocshared=12
%chk=7.chk
# opt freq b3lyp/6-31+g(d,p) scf=xqc

mydftmodel_sets

0 1
 N                  0.24430000   -0.86210000   -0.10720000
 N                  1.27580000    1.76080000    0.11010000
 C                 -0.57930000    0.18580000   -0.01290000
 C                 -0.04720000    1.53720000    0.07090000
 C                 -2.02650000   -0.01270000   -0.03970000
 C                  1.56910000   -0.63620000   -0.09010000
 C                  2.09430000    0.70020000    0.03840000
 C                 -0.93170000    2.65560000    0.08260000
 C                 -2.82460000    1.12250000   -0.04280000
 C                 -2.28140000    2.43600000    0.01140000
 C                  2.47610000   -1.73410000   -0.19610000
 C                  3.51030000    0.88980000    0.07460000
 C                  3.83040000   -1.51320000   -0.16240000
 C                  4.35110000   -0.19010000   -0.02310000
 H                 -0.50040000    3.64900000    0.13710000
 H                 -2.45766179   -1.00276058   -0.05641999
 H                 -2.94529540    3.27499317   -0.00387608
 H                  4.50362183   -2.34111419   -0.24133330
 H                  5.41005276   -0.03941167    0.00539701
 H                 -3.88724084    1.00550298   -0.08758997
 C                  4.03939890    2.32896603    0.21762271
 O                  5.19554743    2.74601012    0.27199750
 O                  3.03726380    3.24096334    0.29108126
 H                  3.39762734    4.13833441    0.38065883
 C                  1.88352998   -3.14764266   -0.34562569
 O                  2.44769392   -4.23563136   -0.45314984
 O                  0.52660515   -3.13868867   -0.35483529
 H                  0.17946206   -4.04068179   -0.45002438

