%mem=4800MB
%nprocshared=12
%chk=8.chk
# opt freq b3lyp/6-31+g(d,p) scf=xqc

mydftmodel_sets

0 1
 N                  0.24430000   -0.86210000   -0.10720000
 N                  1.27580000    1.76080000    0.11010000
 C                 -0.57930000    0.18580000   -0.01290000
 C                 -0.04720000    1.53720000    0.07090000
 C                 -2.02650000   -0.01270000   -0.03970000
 C                  1.56910000   -0.63620000   -0.09010000
 C                  2.09430000    0.70020000    0.03840000
 C                 -0.93170000    2.65560000    0.08260000
 C                 -2.82460000    1.12250000   -0.04280000
 C                 -2.28140000    2.43600000    0.01140000
 C                  2.47610000   -1.73410000   -0.19610000
 C                  3.51030000    0.88980000    0.07460000
 C                  3.83040000   -1.51320000   -0.16240000
 C                  4.35110000   -0.19010000   -0.02310000
 H                 -2.45766179   -1.00276058   -0.05641999
 H                  5.41005276   -0.03941167    0.00539701
 H                 -3.88724084    1.00550298   -0.08758997
 H                  3.91520202    1.87482021    0.17799028
 N                 -3.19348060    3.58863548   -0.00958676
 H                 -3.60187369    3.70706586    0.89550402
 H                 -2.68344416    4.41286065   -0.25558615
 N                  4.75529354   -2.65061482   -0.27084108
 H                  4.96376325   -2.99902582    0.64302442
 H                  4.33101869   -3.37455483   -0.81480957
 S                 -0.29071810    4.31282326    0.18820911
 O                 -0.54731237    5.00299179   -0.99770350
 O                 -0.64427945    4.88704534    1.41043564
 S                  1.84969695   -3.39091457   -0.37212471
 O                  2.16970230   -3.89324908   -1.63458998
 O                  2.15176408   -4.14146193    0.76542021
 O                  0.25109304   -2.90932059   -0.33427291
 H                  0.13944964   -2.22050347    0.32501969
 O                  1.30219829    3.81291104    0.22827341
 H                  1.44519268    3.14405416   -0.44536083

