%mem=4800MB
%nprocshared=12
%chk=9.chk
# opt freq b3lyp/6-31+g(d,p) scf=xqc

mydftmodel_sets

0 1
 N                  0.24430000   -0.86210000   -0.10720000
 N                  1.27580000    1.76080000    0.11010000
 C                 -0.57930000    0.18580000   -0.01290000
 C                 -0.04720000    1.53720000    0.07090000
 C                 -2.02650000   -0.01270000   -0.03970000
 C                  1.56910000   -0.63620000   -0.09010000
 C                  2.09430000    0.70020000    0.03840000
 C                 -0.93170000    2.65560000    0.08260000
 C                 -2.82460000    1.12250000   -0.04280000
 C                 -2.28140000    2.43600000    0.01140000
 C                  2.47610000   -1.73410000   -0.19610000
 C                  3.51030000    0.88980000    0.07460000
 C                  3.83040000   -1.51320000   -0.16240000
 C                  4.35110000   -0.19010000   -0.02310000
 H                 -2.45766179   -1.00276058   -0.05641999
 H                  5.41005276   -0.03941167    0.00539701
 H                 -3.88724084    1.00550298   -0.08758997
 H                  3.91520202    1.87482021    0.17799028
 N                 -3.19348060    3.58863548   -0.00958676
 H                 -3.60187369    3.70706586    0.89550402
 H                 -2.68344416    4.41286065   -0.25558615
 N                  4.75529354   -2.65061482   -0.27084108
 H                  4.96376325   -2.99902582    0.64302442
 H                  4.33101869   -3.37455483   -0.81480957
 N                 -0.40234978    4.02420572    0.16981651
 O                  0.78615195    4.17321820    0.23046094
 O                 -1.18011735    4.93713343    0.17684459
 N                  1.95878962   -3.10236821   -0.34146872
 O                  0.77055038   -3.26306196   -0.36761965
 O                  2.74563679   -4.00335256   -0.42811456

